<?xml version="1.0" encoding="UTF-8"?>

<!-- generated on 2023-12-12 08:26:43 by Eclipse SUMO netedit Version 1.19.0
-->

<routes xmlns:xsi="http://www.w3.org/2001/XMLSchema-instance" xsi:noNamespaceSchemaLocation="http://sumo.dlr.de/xsd/routes_file.xsd">
	
	<!-- ROUTES -->
	<route id="main_line_traffic" edges="E3 E2 E1 E0 spawner main_line_1 merging_area main_line_2" />
	<route id="on_ramp_traffic"   edges="on_ramp merging_area main_line_2" />
	
	<!-- VEHICLE TYPES -->
		<!-- MAIN HIGHWAY -->
			<!-- CARS (car_aggr1 = Least -> car_aggr5 = Most Aggressive) -->
			<vType id="car_aggr1" vClass="passenger" speedFactor="0.80" speedDev="0.08" tau="10.0" impatience="2.0" lcImpatience="1.0"
				   lcCooperative="4.5" lcStrategic="50" lcSpeedGain="7.0" lcKeepRight="0" lcPushy="0.00" lcSublane="2.0" lcAssertive="0.01"
				   lcTimeToImpatience="15" lcSigma="1.8" minGapLat="9.0" maxSpeed="33" accel="0.5" decel="3.5">
				<param key="laneChangeModel" value="SL2015"/>
			</vType>
			<vType id="car_aggr2" vClass="passenger" speedFactor="0.85" speedDev="0.09" tau="9.8" impatience="2.5" lcImpatience="1.5"
				   lcCooperative="4.2" lcStrategic="40" lcSpeedGain="8.0" lcKeepRight="0" lcPushy="0.01" lcSublane="3.0" lcAssertive="0.05"
				   lcTimeToImpatience="12" lcSigma="2.0" minGapLat="9.5" maxSpeed="34" accel="0.7" decel="4.0">
				<param key="laneChangeModel" value="SL2015"/>
			</vType>
			<vType id="car_aggr3" vClass="passenger" speedFactor="0.90" speedDev="0.10" tau="9.3" impatience="3.0" lcImpatience="2.0"
				   lcCooperative="4.0" lcStrategic="30" lcSpeedGain="9.0" lcKeepRight="0" lcPushy="0.02" lcSublane="4.0" lcAssertive="0.08"
				   lcTimeToImpatience="9" lcSigma="2.2" minGapLat="10.0" maxSpeed="39" accel="0.8" decel="4.5">
				<param key="laneChangeModel" value="SL2015"/>
			</vType>
			<vType id="car_aggr4" vClass="passenger" speedFactor="0.95" speedDev="0.12" tau="8.8" impatience="3.5" lcImpatience="2.5"
				   lcCooperative="3.8" lcStrategic="20" lcSpeedGain="10.0" lcKeepRight="0" lcPushy="0.03" lcSublane="5.0" lcAssertive="0.10"
				   lcTimeToImpatience="6" lcSigma="2.4" minGapLat="10.5" maxSpeed="41" accel="1.0" decel="5.0">
				<param key="laneChangeModel" value="SL2015"/>
			</vType>
			<vType id="car_aggr5" vClass="passenger" speedFactor="1.00" speedDev="0.15" tau="8.5" impatience="4.0" lcImpatience="3.0"
				   lcCooperative="3.5" lcStrategic="10" lcSpeedGain="11.0" lcKeepRight="0" lcPushy="0.08" lcSublane="6.0" lcAssertive="0.20"
				   lcTimeToImpatience="3" lcSigma="2.6" minGapLat="11.0" maxSpeed="44" accel="1.1" decel="5.5">
				<param key="laneChangeModel" value="SL2015"/>
			</vType>
			
		<!-- ON RAMPS -->
			<!-- CARS (car_aggr1 = Least -> car_aggr5 = Most Aggressive) -->
			<vType id="ramp_car_aggr1" vClass="passenger" speedFactor="0.80" speedDev="0.08" tau="1.5" impatience="2.0" lcImpatience="2.0"
				   lcCooperative="0.03" lcStrategic="100" lcSpeedGain="7.0" lcKeepRight="0" lcPushy="4.0" lcSublane="2.0" lcAssertive="9.5"
				   lcTimeToImpatience="5" lcSigma="0.4" minGapLat="0.13" lcOvertakeRight="0.0" maxSpeed="46" accel="4.0" decel="3.0">
				<param key="laneChangeModel" value="SL2015"/>
			</vType>
			<vType id="ramp_car_aggr2" vClass="passenger" speedFactor="0.85" speedDev="0.09" tau="0.9" impatience="2.5" lcImpatience="2.5"
				   lcCooperative="0.01" lcStrategic="100" lcSpeedGain="8.0" lcKeepRight="0" lcPushy="4.8" lcSublane="3.0" lcAssertive="10.3"
				   lcTimeToImpatience="5" lcSigma="0.6" minGapLat="0.12" lcOvertakeRight="0.0" maxSpeed="47" accel="4.3" decel="4.0">
				<param key="laneChangeModel" value="SL2015"/>
			</vType>
			<vType id="ramp_car_aggr3" vClass="passenger" speedFactor="0.90" speedDev="0.10" tau="0.8" impatience="3.0" lcImpatience="2.0"
				   lcCooperative="0.00" lcStrategic="100" lcSpeedGain="9.0" lcKeepRight="0" lcPushy="5.3" lcSublane="4.0" lcAssertive="10.8"
				   lcTimeToImpatience="5" lcSigma="0.8" minGapLat="0.10" lcOvertakeRight="0.0" maxSpeed="48" accel="4.6" decel="5.0">
				<param key="laneChangeModel" value="SL2015"/>
			</vType>
			<vType id="ramp_car_aggr4" vClass="passenger" speedFactor="0.95" speedDev="0.12" tau="0.6" impatience="3.5" lcImpatience="2.5"
				   lcCooperative="0.00" lcStrategic="100" lcSpeedGain="10.0" lcKeepRight="0" lcPushy="5.8" lcSublane="5.0" lcAssertive="11.3"
				   lcTimeToImpatience="5" lcSigma="1.0" minGapLat="0.06" lcOvertakeRight="0.0" maxSpeed="49" accel="4.8" decel="6.0">
				<param key="laneChangeModel" value="SL2015"/>
			</vType>
			<vType id="ramp_car_aggr5" vClass="passenger" speedFactor="1.00" speedDev="0.15" tau="0.4" impatience="4.0" lcImpatience="3.0"
				   lcCooperative="0.00" lcStrategic="100" lcSpeedGain="11.0" lcKeepRight="0" lcPushy="6.3" lcSublane="6.0" lcAssertive="12.0"
				   lcTimeToImpatience="3" lcSigma="1.2" minGapLat="0.02" lcOvertakeRight="0.0" maxSpeed="50" accel="5.0" decel="8.0">
				<param key="laneChangeModel" value="SL2015"/>
			</vType>

	<!-- FLOW / DEMAND -->
		<!--
			UNIT: PCU/h (passenger cars per hour, flow)
			time	mainline	ramp
			07:50	600			400
			08:00	900			600
			08:10	1155		595
			08:20	605			495
			08:30	320			480
			08:40	280			420
			08:50	166			334
			
			UNIT: spawning probability per second (divide by 3600)
			07:50	0.16666		0.11111
			08:00	0.25		0.16666
			08:10	0.32083		0.16527
			08:20	0.16805		0.13750
			08:30	0.08888		0.13333
			08:40	0.07777		0.11667
			08:50	0.04444		0.09278
			
			BELOW: 20% for of this probability for each aggressivity class
		-->
			
			<!-- 07:50 - 08:00 -->
		<flow id="flow_0750_main_left_car_1" type="car_aggr1" probability="0.03333" route="main_line_traffic" begin="0" end="600" departSpeed="max" departLane="free" > </flow>
		<flow id="flow_0750_main_left_car_2" type="car_aggr2" probability="0.03333" route="main_line_traffic" begin="0" end="600" departSpeed="max" departLane="free" > </flow>
		<flow id="flow_0750_main_left_car_3" type="car_aggr3" probability="0.03333" route="main_line_traffic" begin="0" end="600" departSpeed="max" departLane="free" > </flow>
		<flow id="flow_0750_main_left_car_4" type="car_aggr4" probability="0.03333" route="main_line_traffic" begin="0" end="600" departSpeed="max" departLane="free" > </flow>
		<flow id="flow_0750_main_left_car_5" type="car_aggr5" probability="0.03333" route="main_line_traffic" begin="0" end="600" departSpeed="max" departLane="free" > </flow>

		<flow id="ramp_0750_flow_main_left_car_1" type="ramp_car_aggr1" probability="0.02222" route="on_ramp_traffic" begin="0" end="600" departSpeed="max" departLane="free" > </flow>
		<flow id="ramp_0750_flow_main_left_car_2" type="ramp_car_aggr2" probability="0.02222" route="on_ramp_traffic" begin="0" end="600" departSpeed="max" departLane="free" > </flow>
		<flow id="ramp_0750_flow_main_left_car_3" type="ramp_car_aggr3" probability="0.02222" route="on_ramp_traffic" begin="0" end="600" departSpeed="max" departLane="free" > </flow>
		<flow id="ramp_0750_flow_main_left_car_4" type="ramp_car_aggr4" probability="0.02222" route="on_ramp_traffic" begin="0" end="600" departSpeed="max" departLane="free" > </flow>
		<flow id="ramp_0750_flow_main_left_car_5" type="ramp_car_aggr5" probability="0.02222" route="on_ramp_traffic" begin="0" end="600" departSpeed="max" departLane="free" > </flow>
		
			<!-- 08:00 - 08:10 -->
		<flow id="flow_0800_main_left_car_1" type="car_aggr1" probability="0.05" route="main_line_traffic" begin="600" end="1200" departSpeed="max" departLane="free" > </flow>
		<flow id="flow_0800_main_left_car_2" type="car_aggr2" probability="0.05" route="main_line_traffic" begin="600" end="1200" departSpeed="max" departLane="free" > </flow>
		<flow id="flow_0800_main_left_car_3" type="car_aggr3" probability="0.05" route="main_line_traffic" begin="600" end="1200" departSpeed="max" departLane="free" > </flow>
		<flow id="flow_0800_main_left_car_4" type="car_aggr4" probability="0.05" route="main_line_traffic" begin="600" end="1200" departSpeed="max" departLane="free" > </flow>
		<flow id="flow_0800_main_left_car_5" type="car_aggr5" probability="0.05" route="main_line_traffic" begin="600" end="1200" departSpeed="max" departLane="free" > </flow>

		<flow id="ramp_0800_flow_main_left_car_1" type="ramp_car_aggr1" probability="0.03332" route="on_ramp_traffic" begin="600" end="1200" departSpeed="max" departLane="free" > </flow>
		<flow id="ramp_0800_flow_main_left_car_2" type="ramp_car_aggr2" probability="0.03332" route="on_ramp_traffic" begin="600" end="1200" departSpeed="max" departLane="free" > </flow>
		<flow id="ramp_0800_flow_main_left_car_3" type="ramp_car_aggr3" probability="0.03332" route="on_ramp_traffic" begin="600" end="1200" departSpeed="max" departLane="free" > </flow>
		<flow id="ramp_0800_flow_main_left_car_4" type="ramp_car_aggr4" probability="0.03332" route="on_ramp_traffic" begin="600" end="1200" departSpeed="max" departLane="free" > </flow>
		<flow id="ramp_0800_flow_main_left_car_5" type="ramp_car_aggr5" probability="0.03332" route="on_ramp_traffic" begin="600" end="1200" departSpeed="max" departLane="free" > </flow>

			<!-- 08:10 - 08:20 -->
		<flow id="flow_0810_main_left_car_1" type="car_aggr1" probability="0.06416" route="main_line_traffic" begin="1200" end="1800" departSpeed="max" departLane="free" > </flow>
		<flow id="flow_0810_main_left_car_2" type="car_aggr2" probability="0.06416" route="main_line_traffic" begin="1200" end="1800" departSpeed="max" departLane="free" > </flow>
		<flow id="flow_0810_main_left_car_3" type="car_aggr3" probability="0.06416" route="main_line_traffic" begin="1200" end="1800" departSpeed="max" departLane="free" > </flow>
		<flow id="flow_0810_main_left_car_4" type="car_aggr4" probability="0.06416" route="main_line_traffic" begin="1200" end="1800" departSpeed="max" departLane="free" > </flow>
		<flow id="flow_0810_main_left_car_5" type="car_aggr5" probability="0.06416" route="main_line_traffic" begin="1200" end="1800" departSpeed="max" departLane="free" > </flow>

		<flow id="ramp_0810_flow_main_left_car_1" type="ramp_car_aggr1" probability="0.03305" route="on_ramp_traffic" begin="1200" end="1800" departSpeed="max" departLane="free" > </flow>
		<flow id="ramp_0810_flow_main_left_car_2" type="ramp_car_aggr2" probability="0.03305" route="on_ramp_traffic" begin="1200" end="1800" departSpeed="max" departLane="free" > </flow>
		<flow id="ramp_0810_flow_main_left_car_3" type="ramp_car_aggr3" probability="0.03305" route="on_ramp_traffic" begin="1200" end="1800" departSpeed="max" departLane="free" > </flow>
		<flow id="ramp_0810_flow_main_left_car_4" type="ramp_car_aggr4" probability="0.03305" route="on_ramp_traffic" begin="1200" end="1800" departSpeed="max" departLane="free" > </flow>
		<flow id="ramp_0810_flow_main_left_car_5" type="ramp_car_aggr5" probability="0.03305" route="on_ramp_traffic" begin="1200" end="1800" departSpeed="max" departLane="free" > </flow>

			<!-- 08:20 - 08:30 -->
		<flow id="flow_0820_main_left_car_1" type="car_aggr1" probability="0.03361" route="main_line_traffic" begin="1800" end="2400" departSpeed="max" departLane="free" > </flow>
		<flow id="flow_0820_main_left_car_2" type="car_aggr2" probability="0.03361" route="main_line_traffic" begin="1800" end="2400" departSpeed="max" departLane="free" > </flow>
		<flow id="flow_0820_main_left_car_3" type="car_aggr3" probability="0.03361" route="main_line_traffic" begin="1800" end="2400" departSpeed="max" departLane="free" > </flow>
		<flow id="flow_0820_main_left_car_4" type="car_aggr4" probability="0.03361" route="main_line_traffic" begin="1800" end="2400" departSpeed="max" departLane="free" > </flow>
		<flow id="flow_0820_main_left_car_5" type="car_aggr5" probability="0.03361" route="main_line_traffic" begin="1800" end="2400" departSpeed="max" departLane="free" > </flow>

		<flow id="ramp_0820_flow_main_left_car_1" type="ramp_car_aggr1" probability="0.02750" route="on_ramp_traffic" begin="1800" end="2400" departSpeed="max" departLane="free" > </flow>
		<flow id="ramp_0820_flow_main_left_car_2" type="ramp_car_aggr2" probability="0.02750" route="on_ramp_traffic" begin="1800" end="2400" departSpeed="max" departLane="free" > </flow>
		<flow id="ramp_0820_flow_main_left_car_3" type="ramp_car_aggr3" probability="0.02750" route="on_ramp_traffic" begin="1800" end="2400" departSpeed="max" departLane="free" > </flow>
		<flow id="ramp_0820_flow_main_left_car_4" type="ramp_car_aggr4" probability="0.02750" route="on_ramp_traffic" begin="1800" end="2400" departSpeed="max" departLane="free" > </flow>
		<flow id="ramp_0820_flow_main_left_car_5" type="ramp_car_aggr5" probability="0.02750" route="on_ramp_traffic" begin="1800" end="2400" departSpeed="max" departLane="free" > </flow>

			<!-- 08:30 - 08:40 -->
		<flow id="flow_0830_main_left_car_1" type="car_aggr1" probability="0.01777" route="main_line_traffic" begin="2400" end="3000" departSpeed="max" departLane="free" > </flow>
		<flow id="flow_0830_main_left_car_2" type="car_aggr2" probability="0.01777" route="main_line_traffic" begin="2400" end="3000" departSpeed="max" departLane="free" > </flow>
		<flow id="flow_0830_main_left_car_3" type="car_aggr3" probability="0.01777" route="main_line_traffic" begin="2400" end="3000" departSpeed="max" departLane="free" > </flow>
		<flow id="flow_0830_main_left_car_4" type="car_aggr4" probability="0.01777" route="main_line_traffic" begin="2400" end="3000" departSpeed="max" departLane="free" > </flow>
		<flow id="flow_0830_main_left_car_5" type="car_aggr5" probability="0.01777" route="main_line_traffic" begin="2400" end="3000" departSpeed="max" departLane="free" > </flow>

		<flow id="ramp_0830_flow_main_left_car_1" type="ramp_car_aggr1" probability="0.02666" route="on_ramp_traffic" begin="2400" end="3000" departSpeed="max" departLane="free" > </flow>
		<flow id="ramp_0830_flow_main_left_car_2" type="ramp_car_aggr2" probability="0.02666" route="on_ramp_traffic" begin="2400" end="3000" departSpeed="max" departLane="free" > </flow>
		<flow id="ramp_0830_flow_main_left_car_3" type="ramp_car_aggr3" probability="0.02666" route="on_ramp_traffic" begin="2400" end="3000" departSpeed="max" departLane="free" > </flow>
		<flow id="ramp_0830_flow_main_left_car_4" type="ramp_car_aggr4" probability="0.02666" route="on_ramp_traffic" begin="2400" end="3000" departSpeed="max" departLane="free" > </flow>
		<flow id="ramp_0830_flow_main_left_car_5" type="ramp_car_aggr5" probability="0.02666" route="on_ramp_traffic" begin="2400" end="3000" departSpeed="max" departLane="free" > </flow>

				<!-- 08:40 - 08:50 -->
		<flow id="flow_0840_main_left_car_1" type="car_aggr1" probability="0.01555" route="main_line_traffic" begin="3000" end="3600" departSpeed="max" departLane="free" > </flow>
		<flow id="flow_0840_main_left_car_2" type="car_aggr2" probability="0.01555" route="main_line_traffic" begin="3000" end="3600" departSpeed="max" departLane="free" > </flow>
		<flow id="flow_0840_main_left_car_3" type="car_aggr3" probability="0.01555" route="main_line_traffic" begin="3000" end="3600" departSpeed="max" departLane="free" > </flow>
		<flow id="flow_0840_main_left_car_4" type="car_aggr4" probability="0.01555" route="main_line_traffic" begin="3000" end="3600" departSpeed="max" departLane="free" > </flow>
		<flow id="flow_0840_main_left_car_5" type="car_aggr5" probability="0.01555" route="main_line_traffic" begin="3000" end="3600" departSpeed="max" departLane="free" > </flow>

		<flow id="ramp_0840_flow_main_left_car_1" type="ramp_car_aggr1" probability="0.02332" route="on_ramp_traffic" begin="3000" end="3600" departSpeed="max" departLane="free" > </flow>
		<flow id="ramp_0840_flow_main_left_car_2" type="ramp_car_aggr2" probability="0.02332" route="on_ramp_traffic" begin="3000" end="3600" departSpeed="max" departLane="free" > </flow>
		<flow id="ramp_0840_flow_main_left_car_3" type="ramp_car_aggr3" probability="0.02332" route="on_ramp_traffic" begin="3000" end="3600" departSpeed="max" departLane="free" > </flow>
		<flow id="ramp_0840_flow_main_left_car_4" type="ramp_car_aggr4" probability="0.02332" route="on_ramp_traffic" begin="3000" end="3600" departSpeed="max" departLane="free" > </flow>
		<flow id="ramp_0840_flow_main_left_car_5" type="ramp_car_aggr5" probability="0.02332" route="on_ramp_traffic" begin="3000" end="3600" departSpeed="max" departLane="free" > </flow>

			<!-- 08:50 - 09:00 -->
		<flow id="flow_0850_main_left_car_1" type="car_aggr1" probability="0.00888" route="main_line_traffic" begin="3600" end="4200" departSpeed="max" departLane="free" > </flow>
		<flow id="flow_0850_main_left_car_2" type="car_aggr2" probability="0.00888" route="main_line_traffic" begin="3600" end="4200" departSpeed="max" departLane="free" > </flow>
		<flow id="flow_0850_main_left_car_3" type="car_aggr3" probability="0.00888" route="main_line_traffic" begin="3600" end="4200" departSpeed="max" departLane="free" > </flow>
		<flow id="flow_0850_main_left_car_4" type="car_aggr4" probability="0.00888" route="main_line_traffic" begin="3600" end="4200" departSpeed="max" departLane="free" > </flow>
		<flow id="flow_0850_main_left_car_5" type="car_aggr5" probability="0.00888" route="main_line_traffic" begin="3600" end="4200" departSpeed="max" departLane="free" > </flow>
	
		<flow id="ramp_0850_flow_main_left_car_1" type="ramp_car_aggr1" probability="0.01856" route="on_ramp_traffic" begin="3600" end="4200" departSpeed="max" departLane="free" > </flow>
		<flow id="ramp_0850_flow_main_left_car_2" type="ramp_car_aggr2" probability="0.01856" route="on_ramp_traffic" begin="3600" end="4200" departSpeed="max" departLane="free" > </flow>
		<flow id="ramp_0850_flow_main_left_car_3" type="ramp_car_aggr3" probability="0.01856" route="on_ramp_traffic" begin="3600" end="4200" departSpeed="max" departLane="free" > </flow>
		<flow id="ramp_0850_flow_main_left_car_4" type="ramp_car_aggr4" probability="0.01856" route="on_ramp_traffic" begin="3600" end="4200" departSpeed="max" departLane="free" > </flow>
		<flow id="ramp_0850_flow_main_left_car_5" type="ramp_car_aggr5" probability="0.01856" route="on_ramp_traffic" begin="3600" end="4200" departSpeed="max" departLane="free" > </flow>

</routes>
