<?xml version="1.0" encoding="UTF-8"?>

<!-- Demand Model for Scenario 4: 2040-Peace -->
<!-- Author: asarris -->
<!-- Description: Peaceful driving distribution - 40/30/15/10/5 split -->
<!-- Total Demand: 6,620 veh/h (6,430 cars + 190 trucks) -->
<!-- Distribution: 40% aggr1, 30% aggr2, 15% aggr3, 10% aggr4, 5% aggr5 -->

<routes xmlns:xsi="http://www.w3.org/2001/XMLSchema-instance" xsi:noNamespaceSchemaLocation="http://sumo.dlr.de/xsd/routes_file.xsd">

    <!-- ============================================ -->
    <!-- HIGHWAY THROUGH-TRAFFIC FLOWS                -->
    <!-- ============================================ -->

    <!-- Route A3_full: Full highway traversal (Total: 1,360 cars, 50 trucks) -->
    <flow id="flow_A3_full_car_aggr1" type="car_aggr1" route="route_A3_full"
          begin="0" end="4500" vehsPerHour="544"
          departLane="best" departSpeed="speedLimit" insertionChecks="none"/>
    <flow id="flow_A3_full_car_aggr2" type="car_aggr2" route="route_A3_full"
          begin="0" end="4500" vehsPerHour="408"
          departLane="best" departSpeed="speedLimit" insertionChecks="none"/>
    <flow id="flow_A3_full_car_aggr3" type="car_aggr3" route="route_A3_full"
          begin="0" end="4500" vehsPerHour="204"
          departLane="best" departSpeed="speedLimit" insertionChecks="none"/>
    <flow id="flow_A3_full_car_aggr4" type="car_aggr4" route="route_A3_full"
          begin="0" end="4500" vehsPerHour="136"
          departLane="best" departSpeed="speedLimit" insertionChecks="none"/>
    <flow id="flow_A3_full_car_aggr5" type="car_aggr5" route="route_A3_full"
          begin="0" end="4500" vehsPerHour="68"
          departLane="best" departSpeed="speedLimit" insertionChecks="none"/>

    <flow id="flow_A3_full_truck_aggr1" type="truck_aggr1" route="route_A3_full"
          begin="0" end="4500" vehsPerHour="20"
          departLane="best" departSpeed="speedLimit" insertionChecks="none"/>
    <flow id="flow_A3_full_truck_aggr2" type="truck_aggr2" route="route_A3_full"
          begin="0" end="4500" vehsPerHour="15"
          departLane="best" departSpeed="speedLimit" insertionChecks="none"/>
    <flow id="flow_A3_full_truck_aggr3" type="truck_aggr3" route="route_A3_full"
          begin="0" end="4500" vehsPerHour="8"
          departLane="best" departSpeed="speedLimit" insertionChecks="none"/>
    <flow id="flow_A3_full_truck_aggr4" type="truck_aggr4" route="route_A3_full"
          begin="0" end="4500" vehsPerHour="5"
          departLane="best" departSpeed="speedLimit" insertionChecks="none"/>
    <flow id="flow_A3_full_truck_aggr5" type="truck_aggr5" route="route_A3_full"
          begin="0" end="4500" vehsPerHour="3"
          departLane="best" departSpeed="speedLimit" insertionChecks="none"/>

    <!-- Route A3_to_WAED: Highway to WAED exit (Total: 770 cars, 20 trucks) -->
    <flow id="flow_A3_to_WAED_car_aggr1" type="car_aggr1" route="route_A3_to_WAED"
          begin="0" end="4500" vehsPerHour="308"
          departLane="best" departSpeed="speedLimit" insertionChecks="none"/>
    <flow id="flow_A3_to_WAED_car_aggr2" type="car_aggr2" route="route_A3_to_WAED"
          begin="0" end="4500" vehsPerHour="231"
          departLane="best" departSpeed="speedLimit" insertionChecks="none"/>
    <flow id="flow_A3_to_WAED_car_aggr3" type="car_aggr3" route="route_A3_to_WAED"
          begin="0" end="4500" vehsPerHour="116"
          departLane="best" departSpeed="speedLimit" insertionChecks="none"/>
    <flow id="flow_A3_to_WAED_car_aggr4" type="car_aggr4" route="route_A3_to_WAED"
          begin="0" end="4500" vehsPerHour="77"
          departLane="best" departSpeed="speedLimit" insertionChecks="none"/>
    <flow id="flow_A3_to_WAED_car_aggr5" type="car_aggr5" route="route_A3_to_WAED"
          begin="0" end="4500" vehsPerHour="39"
          departLane="best" departSpeed="speedLimit" insertionChecks="none"/>

    <flow id="flow_A3_to_WAED_truck_aggr1" type="truck_aggr1" route="route_A3_to_WAED"
          begin="0" end="4500" vehsPerHour="8"
          departLane="best" departSpeed="speedLimit" insertionChecks="none"/>
    <flow id="flow_A3_to_WAED_truck_aggr2" type="truck_aggr2" route="route_A3_to_WAED"
          begin="0" end="4500" vehsPerHour="6"
          departLane="best" departSpeed="speedLimit" insertionChecks="none"/>
    <flow id="flow_A3_to_WAED_truck_aggr3" type="truck_aggr3" route="route_A3_to_WAED"
          begin="0" end="4500" vehsPerHour="3"
          departLane="best" departSpeed="speedLimit" insertionChecks="none"/>
    <flow id="flow_A3_to_WAED_truck_aggr4" type="truck_aggr4" route="route_A3_to_WAED"
          begin="0" end="4500" vehsPerHour="2"
          departLane="best" departSpeed="speedLimit" insertionChecks="none"/>
    <flow id="flow_A3_to_WAED_truck_aggr5" type="truck_aggr5" route="route_A3_to_WAED"
          begin="0" end="4500" vehsPerHour="1"
          departLane="best" departSpeed="speedLimit" insertionChecks="none"/>

    <!-- Route A3_to_HOR: Highway to HOR exit (Total: 730 cars, 20 trucks) -->
    <flow id="flow_A3_to_HOR_car_aggr1" type="car_aggr1" route="route_A3_to_HOR"
          begin="0" end="4500" vehsPerHour="292"
          departLane="best" departSpeed="speedLimit" insertionChecks="none"/>
    <flow id="flow_A3_to_HOR_car_aggr2" type="car_aggr2" route="route_A3_to_HOR"
          begin="0" end="4500" vehsPerHour="219"
          departLane="best" departSpeed="speedLimit" insertionChecks="none"/>
    <flow id="flow_A3_to_HOR_car_aggr3" type="car_aggr3" route="route_A3_to_HOR"
          begin="0" end="4500" vehsPerHour="110"
          departLane="best" departSpeed="speedLimit" insertionChecks="none"/>
    <flow id="flow_A3_to_HOR_car_aggr4" type="car_aggr4" route="route_A3_to_HOR"
          begin="0" end="4500" vehsPerHour="73"
          departLane="best" departSpeed="speedLimit" insertionChecks="none"/>
    <flow id="flow_A3_to_HOR_car_aggr5" type="car_aggr5" route="route_A3_to_HOR"
          begin="0" end="4500" vehsPerHour="37"
          departLane="best" departSpeed="speedLimit" insertionChecks="none"/>

    <flow id="flow_A3_to_HOR_truck_aggr1" type="truck_aggr1" route="route_A3_to_HOR"
          begin="0" end="4500" vehsPerHour="8"
          departLane="best" departSpeed="speedLimit" insertionChecks="none"/>
    <flow id="flow_A3_to_HOR_truck_aggr2" type="truck_aggr2" route="route_A3_to_HOR"
          begin="0" end="4500" vehsPerHour="6"
          departLane="best" departSpeed="speedLimit" insertionChecks="none"/>
    <flow id="flow_A3_to_HOR_truck_aggr3" type="truck_aggr3" route="route_A3_to_HOR"
          begin="0" end="4500" vehsPerHour="3"
          departLane="best" departSpeed="speedLimit" insertionChecks="none"/>
    <flow id="flow_A3_to_HOR_truck_aggr4" type="truck_aggr4" route="route_A3_to_HOR"
          begin="0" end="4500" vehsPerHour="2"
          departLane="best" departSpeed="speedLimit" insertionChecks="none"/>
    <flow id="flow_A3_to_HOR_truck_aggr5" type="truck_aggr5" route="route_A3_to_HOR"
          begin="0" end="4500" vehsPerHour="1"
          departLane="best" departSpeed="speedLimit" insertionChecks="none"/>

    <!-- Route A3_to_THA: Highway to THA exit (Total: 1,100 cars, 30 trucks) -->
    <flow id="flow_A3_to_THA_car_aggr1" type="car_aggr1" route="route_A3_to_THA"
          begin="0" end="4500" vehsPerHour="440"
          departLane="best" departSpeed="speedLimit" insertionChecks="none"/>
    <flow id="flow_A3_to_THA_car_aggr2" type="car_aggr2" route="route_A3_to_THA"
          begin="0" end="4500" vehsPerHour="330"
          departLane="best" departSpeed="speedLimit" insertionChecks="none"/>
    <flow id="flow_A3_to_THA_car_aggr3" type="car_aggr3" route="route_A3_to_THA"
          begin="0" end="4500" vehsPerHour="165"
          departLane="best" departSpeed="speedLimit" insertionChecks="none"/>
    <flow id="flow_A3_to_THA_car_aggr4" type="car_aggr4" route="route_A3_to_THA"
          begin="0" end="4500" vehsPerHour="110"
          departLane="best" departSpeed="speedLimit" insertionChecks="none"/>
    <flow id="flow_A3_to_THA_car_aggr5" type="car_aggr5" route="route_A3_to_THA"
          begin="0" end="4500" vehsPerHour="55"
          departLane="best" departSpeed="speedLimit" insertionChecks="none"/>

    <flow id="flow_A3_to_THA_truck_aggr1" type="truck_aggr1" route="route_A3_to_THA"
          begin="0" end="4500" vehsPerHour="12"
          departLane="best" departSpeed="speedLimit" insertionChecks="none"/>
    <flow id="flow_A3_to_THA_truck_aggr2" type="truck_aggr2" route="route_A3_to_THA"
          begin="0" end="4500" vehsPerHour="9"
          departLane="best" departSpeed="speedLimit" insertionChecks="none"/>
    <flow id="flow_A3_to_THA_truck_aggr3" type="truck_aggr3" route="route_A3_to_THA"
          begin="0" end="4500" vehsPerHour="5"
          departLane="best" departSpeed="speedLimit" insertionChecks="none"/>
    <flow id="flow_A3_to_THA_truck_aggr4" type="truck_aggr4" route="route_A3_to_THA"
          begin="0" end="4500" vehsPerHour="3"
          departLane="best" departSpeed="speedLimit" insertionChecks="none"/>
    <flow id="flow_A3_to_THA_truck_aggr5" type="truck_aggr5" route="route_A3_to_THA"
          begin="0" end="4500" vehsPerHour="2"
          departLane="best" departSpeed="speedLimit" insertionChecks="none"/>

    <!-- ============================================ -->
    <!-- ENTRY RAMP FLOWS                             -->
    <!-- ============================================ -->

    <!-- Route WAED_to_A3: WAED entry ramp (Total: 780 cars, 20 trucks) -->
    <flow id="flow_WAED_to_A3_car_aggr1" type="car_aggr1" route="route_WAED_to_A3"
          begin="0" end="4500" vehsPerHour="312"
          departLane="best" departSpeed="speedLimit" insertionChecks="none"/>
    <flow id="flow_WAED_to_A3_car_aggr2" type="car_aggr2" route="route_WAED_to_A3"
          begin="0" end="4500" vehsPerHour="234"
          departLane="best" departSpeed="speedLimit" insertionChecks="none"/>
    <flow id="flow_WAED_to_A3_car_aggr3" type="car_aggr3" route="route_WAED_to_A3"
          begin="0" end="4500" vehsPerHour="117"
          departLane="best" departSpeed="speedLimit" insertionChecks="none"/>
    <flow id="flow_WAED_to_A3_car_aggr4" type="car_aggr4" route="route_WAED_to_A3"
          begin="0" end="4500" vehsPerHour="78"
          departLane="best" departSpeed="speedLimit" insertionChecks="none"/>
    <flow id="flow_WAED_to_A3_car_aggr5" type="car_aggr5" route="route_WAED_to_A3"
          begin="0" end="4500" vehsPerHour="39"
          departLane="best" departSpeed="speedLimit" insertionChecks="none"/>

    <flow id="flow_WAED_to_A3_truck_aggr1" type="truck_aggr1" route="route_WAED_to_A3"
          begin="0" end="4500" vehsPerHour="8"
          departLane="best" departSpeed="speedLimit" insertionChecks="none"/>
    <flow id="flow_WAED_to_A3_truck_aggr2" type="truck_aggr2" route="route_WAED_to_A3"
          begin="0" end="4500" vehsPerHour="6"
          departLane="best" departSpeed="speedLimit" insertionChecks="none"/>
    <flow id="flow_WAED_to_A3_truck_aggr3" type="truck_aggr3" route="route_WAED_to_A3"
          begin="0" end="4500" vehsPerHour="3"
          departLane="best" departSpeed="speedLimit" insertionChecks="none"/>
    <flow id="flow_WAED_to_A3_truck_aggr4" type="truck_aggr4" route="route_WAED_to_A3"
          begin="0" end="4500" vehsPerHour="2"
          departLane="best" departSpeed="speedLimit" insertionChecks="none"/>
    <flow id="flow_WAED_to_A3_truck_aggr5" type="truck_aggr5" route="route_WAED_to_A3"
          begin="0" end="4500" vehsPerHour="1"
          departLane="best" departSpeed="speedLimit" insertionChecks="none"/>

    <!-- Route HOR_to_A3: HOR entry ramp (Total: 690 cars, 20 trucks) -->
    <flow id="flow_HOR_to_A3_car_aggr1" type="car_aggr1" route="route_HOR_to_A3"
          begin="0" end="4500" vehsPerHour="276"
          departLane="best" departSpeed="speedLimit" insertionChecks="none"/>
    <flow id="flow_HOR_to_A3_car_aggr2" type="car_aggr2" route="route_HOR_to_A3"
          begin="0" end="4500" vehsPerHour="207"
          departLane="best" departSpeed="speedLimit" insertionChecks="none"/>
    <flow id="flow_HOR_to_A3_car_aggr3" type="car_aggr3" route="route_HOR_to_A3"
          begin="0" end="4500" vehsPerHour="104"
          departLane="best" departSpeed="speedLimit" insertionChecks="none"/>
    <flow id="flow_HOR_to_A3_car_aggr4" type="car_aggr4" route="route_HOR_to_A3"
          begin="0" end="4500" vehsPerHour="69"
          departLane="best" departSpeed="speedLimit" insertionChecks="none"/>
    <flow id="flow_HOR_to_A3_car_aggr5" type="car_aggr5" route="route_HOR_to_A3"
          begin="0" end="4500" vehsPerHour="35"
          departLane="best" departSpeed="speedLimit" insertionChecks="none"/>

    <flow id="flow_HOR_to_A3_truck_aggr1" type="truck_aggr1" route="route_HOR_to_A3"
          begin="0" end="4500" vehsPerHour="8"
          departLane="best" departSpeed="speedLimit" insertionChecks="none"/>
    <flow id="flow_HOR_to_A3_truck_aggr2" type="truck_aggr2" route="route_HOR_to_A3"
          begin="0" end="4500" vehsPerHour="6"
          departLane="best" departSpeed="speedLimit" insertionChecks="none"/>
    <flow id="flow_HOR_to_A3_truck_aggr3" type="truck_aggr3" route="route_HOR_to_A3"
          begin="0" end="4500" vehsPerHour="3"
          departLane="best" departSpeed="speedLimit" insertionChecks="none"/>
    <flow id="flow_HOR_to_A3_truck_aggr4" type="truck_aggr4" route="route_HOR_to_A3"
          begin="0" end="4500" vehsPerHour="2"
          departLane="best" departSpeed="speedLimit" insertionChecks="none"/>
    <flow id="flow_HOR_to_A3_truck_aggr5" type="truck_aggr5" route="route_HOR_to_A3"
          begin="0" end="4500" vehsPerHour="1"
          departLane="best" departSpeed="speedLimit" insertionChecks="none"/>

    <!-- Route THA_to_A3: THA entry ramp (Total: 1,000 cars, 30 trucks) -->
    <flow id="flow_THA_to_A3_car_aggr1" type="car_aggr1" route="route_THA_to_A3"
          begin="0" end="4500" vehsPerHour="400"
          departLane="best" departSpeed="speedLimit" insertionChecks="none"/>
    <flow id="flow_THA_to_A3_car_aggr2" type="car_aggr2" route="route_THA_to_A3"
          begin="0" end="4500" vehsPerHour="300"
          departLane="best" departSpeed="speedLimit" insertionChecks="none"/>
    <flow id="flow_THA_to_A3_car_aggr3" type="car_aggr3" route="route_THA_to_A3"
          begin="0" end="4500" vehsPerHour="150"
          departLane="best" departSpeed="speedLimit" insertionChecks="none"/>
    <flow id="flow_THA_to_A3_car_aggr4" type="car_aggr4" route="route_THA_to_A3"
          begin="0" end="4500" vehsPerHour="100"
          departLane="best" departSpeed="speedLimit" insertionChecks="none"/>
    <flow id="flow_THA_to_A3_car_aggr5" type="car_aggr5" route="route_THA_to_A3"
          begin="0" end="4500" vehsPerHour="50"
          departLane="best" departSpeed="speedLimit" insertionChecks="none"/>

    <flow id="flow_THA_to_A3_truck_aggr1" type="truck_aggr1" route="route_THA_to_A3"
          begin="0" end="4500" vehsPerHour="12"
          departLane="best" departSpeed="speedLimit" insertionChecks="none"/>
    <flow id="flow_THA_to_A3_truck_aggr2" type="truck_aggr2" route="route_THA_to_A3"
          begin="0" end="4500" vehsPerHour="9"
          departLane="best" departSpeed="speedLimit" insertionChecks="none"/>
    <flow id="flow_THA_to_A3_truck_aggr3" type="truck_aggr3" route="route_THA_to_A3"
          begin="0" end="4500" vehsPerHour="5"
          departLane="best" departSpeed="speedLimit" insertionChecks="none"/>
    <flow id="flow_THA_to_A3_truck_aggr4" type="truck_aggr4" route="route_THA_to_A3"
          begin="0" end="4500" vehsPerHour="3"
          departLane="best" departSpeed="speedLimit" insertionChecks="none"/>
    <flow id="flow_THA_to_A3_truck_aggr5" type="truck_aggr5" route="route_THA_to_A3"
          begin="0" end="4500" vehsPerHour="2"
          departLane="best" departSpeed="speedLimit" insertionChecks="none"/>

    <!-- ============================================ -->
    <!-- DEMAND SUMMARY                               -->
    <!-- ============================================ -->
    <!-- Total Flows: 70 (7 routes × 5 aggr × 2 types)-->
    <!-- Total Cars: 6,430 veh/h                      -->
    <!-- Total Trucks: 190 veh/h                      -->
    <!-- GRAND TOTAL: 6,620 veh/h                     -->
    <!-- Distribution: 40% aggr1, 30% aggr2, 15% aggr3, 10% aggr4, 5% aggr5 -->
    <!-- ============================================ -->

</routes>
